<?xml version="1.0" encoding="UTF-8"?>

<!-- generated on 2023-05-20 18:57:30 by Eclipse SUMO netedit Version 1.16.0
<configuration xmlns:xsi="http://www.w3.org/2001/XMLSchema-instance" xsi:noNamespaceSchemaLocation="http://sumo.dlr.de/xsd/netconvertConfiguration.xsd">

    <input>
        <sumo-net-file value="D:\SUMO\workplace\traci6\gui_lin_road2\network.net.xml"/>
    </input>

    <output>
        <output-file value="D:\SUMO\workplace\traci6\gui_lin_road2\network.net.xml"/>
        <output.street-names value="true"/>
    </output>

    <processing>
        <geometry.min-radius.fix.railways value="false"/>
        <geometry.max-grade.fix value="false"/>
        <offset.disable-normalization value="true"/>
        <lefthand value="0"/>
    </processing>

    <junctions>
        <no-turnarounds value="true"/>
        <junctions.corner-detail value="5"/>
        <junctions.limit-turn-speed value="5.50"/>
        <rectangular-lane-cut value="0"/>
    </junctions>

    <pedestrian>
        <walkingareas value="0"/>
    </pedestrian>

</configuration>
-->

<net version="1.16" junctionCornerDetail="5" limitTurnSpeed="5.50" xmlns:xsi="http://www.w3.org/2001/XMLSchema-instance" xsi:noNamespaceSchemaLocation="http://sumo.dlr.de/xsd/net_file.xsd">

    <location netOffset="-684739.84,-4858608.70" convBoundary="0.00,0.00,1888.25,2034.14" origBoundary="125.298949,43.857275,125.322533,43.875649" projParameter="+proj=utm +zone=51 +ellps=WGS84 +datum=WGS84 +units=m +no_defs"/>

    <type id="highway.bridleway" priority="1" numLanes="1" speed="2.78" allow="pedestrian" oneway="1" width="2.00"/>
    <type id="highway.bus_guideway" priority="1" numLanes="1" speed="27.78" allow="bus" oneway="1"/>
    <type id="highway.cycleway" priority="1" numLanes="1" speed="5.56" allow="bicycle" oneway="0" width="1.00"/>
    <type id="highway.footway" priority="1" numLanes="1" speed="2.78" allow="pedestrian" oneway="1" width="2.00"/>
    <type id="highway.ford" priority="1" numLanes="1" speed="2.78" allow="army" oneway="0"/>
    <type id="highway.living_street" priority="2" numLanes="1" speed="2.78" disallow="tram rail_urban rail rail_electric rail_fast ship" oneway="0"/>
    <type id="highway.motorway" priority="14" numLanes="2" speed="39.44" allow="private emergency authority army vip passenger hov taxi bus coach delivery truck trailer motorcycle evehicle custom1 custom2" oneway="1"/>
    <type id="highway.motorway_link" priority="9" numLanes="1" speed="22.22" allow="private emergency authority army vip passenger hov taxi bus coach delivery truck trailer motorcycle evehicle custom1 custom2" oneway="1"/>
    <type id="highway.path" priority="1" numLanes="1" speed="5.56" allow="pedestrian bicycle" oneway="0" width="2.00"/>
    <type id="highway.pedestrian" priority="1" numLanes="1" speed="2.78" allow="pedestrian" oneway="1" width="2.00"/>
    <type id="highway.primary" priority="12" numLanes="2" speed="27.78" disallow="tram rail_urban rail rail_electric rail_fast ship" oneway="0"/>
    <type id="highway.primary_link" priority="7" numLanes="1" speed="22.22" disallow="tram rail_urban rail rail_electric rail_fast ship" oneway="0"/>
    <type id="highway.raceway" priority="15" numLanes="2" speed="83.33" allow="vip" oneway="0"/>
    <type id="highway.residential" priority="3" numLanes="1" speed="13.89" disallow="tram rail_urban rail rail_electric rail_fast ship" oneway="0"/>
    <type id="highway.secondary" priority="11" numLanes="1" speed="27.78" disallow="tram rail_urban rail rail_electric rail_fast ship" oneway="0"/>
    <type id="highway.secondary_link" priority="6" numLanes="1" speed="22.22" disallow="tram rail_urban rail rail_electric rail_fast ship" oneway="0"/>
    <type id="highway.service" priority="1" numLanes="1" speed="5.56" allow="pedestrian delivery bicycle" oneway="0"/>
    <type id="highway.stairs" priority="1" numLanes="1" speed="1.39" allow="pedestrian" oneway="1" width="2.00"/>
    <type id="highway.step" priority="1" numLanes="1" speed="1.39" allow="pedestrian" oneway="1" width="2.00"/>
    <type id="highway.steps" priority="1" numLanes="1" speed="1.39" allow="pedestrian" oneway="1" width="2.00"/>
    <type id="highway.tertiary" priority="10" numLanes="1" speed="22.22" disallow="tram rail_urban rail rail_electric rail_fast ship" oneway="0"/>
    <type id="highway.tertiary_link" priority="5" numLanes="1" speed="22.22" disallow="tram rail_urban rail rail_electric rail_fast ship" oneway="0"/>
    <type id="highway.track" priority="1" numLanes="1" speed="5.56" allow="pedestrian motorcycle moped bicycle" oneway="0"/>
    <type id="highway.trunk" priority="13" numLanes="2" speed="27.78" disallow="pedestrian bicycle tram rail_urban rail rail_electric rail_fast ship" oneway="0"/>
    <type id="highway.trunk_link" priority="8" numLanes="1" speed="22.22" disallow="pedestrian bicycle tram rail_urban rail rail_electric rail_fast ship" oneway="0"/>
    <type id="highway.unclassified" priority="4" numLanes="1" speed="13.89" disallow="tram rail_urban rail rail_electric rail_fast ship" oneway="0"/>
    <type id="highway.unsurfaced" priority="1" numLanes="1" speed="8.33" disallow="tram rail_urban rail rail_electric rail_fast ship" oneway="0"/>
    <type id="railway.highspeed" priority="21" numLanes="1" speed="69.44" allow="rail_fast" oneway="1"/>
    <type id="railway.light_rail" priority="19" numLanes="1" speed="27.78" allow="rail_urban" oneway="1"/>
    <type id="railway.preserved" priority="16" numLanes="1" speed="27.78" allow="rail" oneway="1"/>
    <type id="railway.rail" priority="20" numLanes="1" speed="44.44" allow="rail" oneway="1"/>
    <type id="railway.subway" priority="18" numLanes="1" speed="27.78" allow="rail_urban" oneway="1"/>
    <type id="railway.tram" priority="17" numLanes="1" speed="13.89" allow="tram" oneway="1"/>

    <edge id=":1372247588_0" function="internal">
        <lane id=":1372247588_0_0" index="0" disallow="tram rail_urban rail rail_electric rail_fast ship" speed="6.50" length="9.03" shape="443.44,921.83 443.68,924.30 444.65,926.09 446.36,927.21 448.79,927.66"/>
    </edge>
    <edge id=":1372247588_1" function="internal">
        <lane id=":1372247588_1_0" index="0" disallow="tram rail_urban rail rail_electric rail_fast ship" speed="22.22" length="11.22" shape="443.44,921.83 442.98,933.04"/>
    </edge>
    <edge id=":1372247588_2" function="internal">
        <lane id=":1372247588_2_0" index="0" disallow="tram rail_urban rail rail_electric rail_fast ship" speed="22.22" length="11.22" shape="437.58,927.15 448.79,927.66"/>
    </edge>
    <edge id=":1372247588_3" function="internal">
        <lane id=":1372247588_3_0" index="0" disallow="tram rail_urban rail rail_electric rail_fast ship" speed="6.56" length="9.08" shape="437.58,927.15 440.02,927.63 441.74,928.77 442.72,930.57 442.98,933.04"/>
    </edge>
    <edge id=":1378587312_0" function="internal">
        <lane id=":1378587312_0_0" index="0" disallow="tram rail_urban rail rail_electric rail_fast ship" speed="3.65" length="4.67" shape="568.71,2030.61 567.89,2031.80 567.08,2032.18 566.29,2031.76 565.51,2030.55"/>
    </edge>
    <edge id=":1382074421_0" function="internal">
        <lane id=":1382074421_0_0" index="0" disallow="tram rail_urban rail rail_electric rail_fast ship" speed="6.53" length="9.03" shape="453.89,631.32 454.13,633.76 455.11,635.55 456.82,636.68 459.26,637.17"/>
    </edge>
    <edge id=":1382074421_1" function="internal">
        <lane id=":1382074421_1_0" index="0" disallow="tram rail_urban rail rail_electric rail_fast ship" speed="22.22" length="11.16" shape="453.89,631.32 453.57,642.48"/>
    </edge>
    <edge id=":1382074423_0" function="internal">
        <lane id=":1382074423_0_0" index="0" disallow="tram rail_urban rail rail_electric rail_fast ship" speed="6.57" length="9.14" shape="630.23,641.11 630.49,643.61 631.47,645.43 633.18,646.59 635.62,647.07"/>
    </edge>
    <edge id=":1382074423_1" function="internal">
        <lane id=":1382074423_1_0" index="0" disallow="tram rail_urban rail rail_electric rail_fast ship" speed="22.22" length="11.29" shape="630.23,641.11 629.79,652.39"/>
    </edge>
    <edge id=":1382074423_2" function="internal">
        <lane id=":1382074423_2_0" index="0" disallow="tram rail_urban rail rail_electric rail_fast ship" speed="3.65" length="1.44" shape="630.23,641.11 629.39,642.28"/>
    </edge>
    <edge id=":1382074423_9" function="internal">
        <lane id=":1382074423_9_0" index="0" disallow="tram rail_urban rail rail_electric rail_fast ship" speed="3.65" length="3.23" shape="629.39,642.28 628.57,642.64 627.79,642.21 627.04,640.98"/>
    </edge>
    <edge id=":1382074423_3" function="internal">
        <lane id=":1382074423_3_0" index="0" disallow="tram rail_urban rail rail_electric rail_fast ship" speed="6.47" length="9.03" shape="621.20,646.29 623.67,646.08 625.46,645.12 626.59,643.42 627.04,640.98"/>
    </edge>
    <edge id=":1382074423_4" function="internal">
        <lane id=":1382074423_4_0" index="0" disallow="tram rail_urban rail rail_electric rail_fast ship" speed="22.22" length="14.45" shape="621.20,646.29 635.62,647.07"/>
    </edge>
    <edge id=":1382074423_5" function="internal">
        <lane id=":1382074423_5_0" index="0" disallow="tram rail_urban rail rail_electric rail_fast ship" speed="7.39" length="11.81" shape="621.20,646.29 625.04,646.85 627.75,648.06 629.33,649.91 629.79,652.39"/>
    </edge>
    <edge id=":1382074423_6" function="internal">
        <lane id=":1382074423_6_0" index="0" disallow="tram rail_urban rail rail_electric rail_fast ship" speed="22.22" length="11.29" shape="626.59,652.27 627.04,640.98"/>
    </edge>
    <edge id=":1382074423_7" function="internal">
        <lane id=":1382074423_7_0" index="0" disallow="tram rail_urban rail rail_electric rail_fast ship" speed="7.30" length="2.53" shape="626.59,652.27 627.24,649.82"/>
    </edge>
    <edge id=":1382074423_8" function="internal">
        <lane id=":1382074423_8_0" index="0" disallow="tram rail_urban rail rail_electric rail_fast ship" speed="3.65" length="1.44" shape="626.59,652.27 627.43,651.10"/>
    </edge>
    <edge id=":1382074423_10" function="internal">
        <lane id=":1382074423_10_0" index="0" disallow="tram rail_urban rail rail_electric rail_fast ship" speed="7.30" length="9.22" shape="627.24,649.82 628.96,648.14 631.75,647.22 635.62,647.07"/>
    </edge>
    <edge id=":1382074423_11" function="internal">
        <lane id=":1382074423_11_0" index="0" disallow="tram rail_urban rail rail_electric rail_fast ship" speed="3.65" length="3.23" shape="627.43,651.10 628.25,650.73 629.03,651.16 629.79,652.39"/>
    </edge>
    <edge id=":1382074424_0" function="internal">
        <lane id=":1382074424_0_0" index="0" disallow="tram rail_urban rail rail_electric rail_fast ship" speed="6.51" length="9.04" shape="828.91,649.64 829.15,652.10 830.12,653.89 831.83,655.02 834.27,655.48"/>
    </edge>
    <edge id=":1382074424_1" function="internal">
        <lane id=":1382074424_1_0" index="0" disallow="tram rail_urban rail rail_electric rail_fast ship" speed="22.22" length="11.22" shape="828.91,649.64 828.47,660.84"/>
    </edge>
    <edge id=":1382074424_2" function="internal">
        <lane id=":1382074424_2_0" index="0" disallow="tram rail_urban rail rail_electric rail_fast ship" speed="3.65" length="1.44" shape="828.91,649.64 828.05,650.80"/>
    </edge>
    <edge id=":1382074424_9" function="internal">
        <lane id=":1382074424_9_0" index="0" disallow="tram rail_urban rail rail_electric rail_fast ship" speed="3.65" length="3.23" shape="828.05,650.80 827.24,651.16 826.46,650.73 825.71,649.49"/>
    </edge>
    <edge id=":1382074424_3" function="internal">
        <lane id=":1382074424_3_0" index="0" disallow="tram rail_urban rail rail_electric rail_fast ship" speed="6.52" length="9.04" shape="819.87,654.87 822.33,654.62 824.13,653.64 825.25,651.93 825.71,649.49"/>
    </edge>
    <edge id=":1382074424_4" function="internal">
        <lane id=":1382074424_4_0" index="0" disallow="tram rail_urban rail rail_electric rail_fast ship" speed="22.22" length="14.41" shape="819.87,654.87 834.27,655.48"/>
    </edge>
    <edge id=":1382074424_5" function="internal">
        <lane id=":1382074424_5_0" index="0" disallow="tram rail_urban rail rail_electric rail_fast ship" speed="7.35" length="11.76" shape="819.87,654.87 823.70,655.38 826.42,656.54 828.00,658.36 828.47,660.84"/>
    </edge>
    <edge id=":1382074424_6" function="internal">
        <lane id=":1382074424_6_0" index="0" disallow="tram rail_urban rail rail_electric rail_fast ship" speed="22.22" length="11.25" shape="825.27,660.74 825.71,649.49"/>
    </edge>
    <edge id=":1382074424_7" function="internal">
        <lane id=":1382074424_7_0" index="0" disallow="tram rail_urban rail rail_electric rail_fast ship" speed="7.30" length="2.53" shape="825.27,660.74 825.91,658.29"/>
    </edge>
    <edge id=":1382074424_8" function="internal">
        <lane id=":1382074424_8_0" index="0" disallow="tram rail_urban rail rail_electric rail_fast ship" speed="3.65" length="1.44" shape="825.27,660.74 826.11,659.56"/>
    </edge>
    <edge id=":1382074424_10" function="internal">
        <lane id=":1382074424_10_0" index="0" disallow="tram rail_urban rail rail_electric rail_fast ship" speed="7.30" length="9.22" shape="825.91,658.29 827.62,656.60 830.40,655.66 834.27,655.48"/>
    </edge>
    <edge id=":1382074424_11" function="internal">
        <lane id=":1382074424_11_0" index="0" disallow="tram rail_urban rail rail_electric rail_fast ship" speed="3.65" length="3.23" shape="826.11,659.56 826.92,659.19 827.71,659.62 828.47,660.84"/>
    </edge>
    <edge id=":1382074437_0" function="internal">
        <lane id=":1382074437_0_0" index="0" disallow="tram rail_urban rail rail_electric rail_fast ship" speed="6.51" length="9.00" shape="629.84,791.79 627.39,792.04 625.60,793.01 624.47,794.70 624.01,797.12"/>
    </edge>
    <edge id=":1382074437_1" function="internal">
        <lane id=":1382074437_1_0" index="0" disallow="tram rail_urban rail rail_electric rail_fast ship" speed="22.22" length="14.37" shape="629.84,791.79 615.48,791.11"/>
    </edge>
    <edge id=":1382074437_2" function="internal">
        <lane id=":1382074437_2_0" index="0" disallow="tram rail_urban rail rail_electric rail_fast ship" speed="7.32" length="11.72" shape="629.84,791.79 626.02,791.28 623.32,790.12 621.74,788.30 621.29,785.82"/>
    </edge>
    <edge id=":1382074437_3" function="internal">
        <lane id=":1382074437_3_0" index="0" disallow="tram rail_urban rail rail_electric rail_fast ship" speed="22.22" length="11.18" shape="624.49,785.95 624.01,797.12"/>
    </edge>
    <edge id=":1382074437_4" function="internal">
        <lane id=":1382074437_4_0" index="0" disallow="tram rail_urban rail rail_electric rail_fast ship" speed="7.29" length="2.52" shape="624.49,785.95 623.84,788.39"/>
    </edge>
    <edge id=":1382074437_5" function="internal">
        <lane id=":1382074437_5_0" index="0" disallow="tram rail_urban rail rail_electric rail_fast ship" speed="3.65" length="1.44" shape="624.49,785.95 623.64,787.12"/>
    </edge>
    <edge id=":1382074437_9" function="internal">
        <lane id=":1382074437_9_0" index="0" disallow="tram rail_urban rail rail_electric rail_fast ship" speed="7.29" length="9.19" shape="623.84,788.39 622.13,790.06 619.34,790.97 615.48,791.11"/>
    </edge>
    <edge id=":1382074437_10" function="internal">
        <lane id=":1382074437_10_0" index="0" disallow="tram rail_urban rail rail_electric rail_fast ship" speed="3.65" length="3.23" shape="623.64,787.12 622.83,787.48 622.05,787.05 621.29,785.82"/>
    </edge>
    <edge id=":1382074437_6" function="internal">
        <lane id=":1382074437_6_0" index="0" disallow="tram rail_urban rail rail_electric rail_fast ship" speed="6.52" length="9.02" shape="620.81,796.97 620.58,794.52 619.61,792.73 617.91,791.59 615.48,791.11"/>
    </edge>
    <edge id=":1382074437_7" function="internal">
        <lane id=":1382074437_7_0" index="0" disallow="tram rail_urban rail rail_electric rail_fast ship" speed="22.22" length="11.16" shape="620.81,796.97 621.29,785.82"/>
    </edge>
    <edge id=":1382074437_8" function="internal">
        <lane id=":1382074437_8_0" index="0" disallow="tram rail_urban rail rail_electric rail_fast ship" speed="3.65" length="1.44" shape="620.81,796.97 621.67,795.81"/>
    </edge>
    <edge id=":1382074437_11" function="internal">
        <lane id=":1382074437_11_0" index="0" disallow="tram rail_urban rail rail_electric rail_fast ship" speed="3.65" length="3.23" shape="621.67,795.81 622.49,795.45 623.27,795.89 624.01,797.12"/>
    </edge>
    <edge id=":1382074438_0" function="internal">
        <lane id=":1382074438_0_0" index="0" disallow="tram rail_urban rail rail_electric rail_fast ship" speed="6.52" length="9.06" shape="829.40,799.75 826.94,800.00 825.14,800.98 824.01,802.69 823.54,805.13"/>
    </edge>
    <edge id=":1382074438_1" function="internal">
        <lane id=":1382074438_1_0" index="0" disallow="tram rail_urban rail rail_electric rail_fast ship" speed="22.22" length="14.41" shape="829.40,799.75 815.00,799.15"/>
    </edge>
    <edge id=":1382074438_2" function="internal">
        <lane id=":1382074438_2_0" index="0" disallow="tram rail_urban rail rail_electric rail_fast ship" speed="7.36" length="11.75" shape="829.40,799.75 825.57,799.24 822.86,798.07 821.27,796.24 820.80,793.77"/>
    </edge>
    <edge id=":1382074438_3" function="internal">
        <lane id=":1382074438_3_0" index="0" disallow="tram rail_urban rail rail_electric rail_fast ship" speed="22.22" length="11.26" shape="824.00,793.88 823.54,805.13"/>
    </edge>
    <edge id=":1382074438_4" function="internal">
        <lane id=":1382074438_4_0" index="0" disallow="tram rail_urban rail rail_electric rail_fast ship" speed="7.31" length="2.62" shape="824.00,793.88 823.37,796.32 823.29,796.39"/>
    </edge>
    <edge id=":1382074438_5" function="internal">
        <lane id=":1382074438_5_0" index="0" disallow="tram rail_urban rail rail_electric rail_fast ship" speed="3.65" length="1.44" shape="824.00,793.88 823.16,795.05"/>
    </edge>
    <edge id=":1382074438_9" function="internal">
        <lane id=":1382074438_9_0" index="0" disallow="tram rail_urban rail rail_electric rail_fast ship" speed="7.31" length="9.12" shape="823.29,796.39 821.65,798.01 818.87,798.96 815.00,799.15"/>
    </edge>
    <edge id=":1382074438_10" function="internal">
        <lane id=":1382074438_10_0" index="0" disallow="tram rail_urban rail rail_electric rail_fast ship" speed="3.65" length="3.23" shape="823.16,795.05 822.35,795.42 821.56,795.00 820.80,793.77"/>
    </edge>
    <edge id=":1382074438_6" function="internal">
        <lane id=":1382074438_6_0" index="0" disallow="tram rail_urban rail rail_electric rail_fast ship" speed="6.49" length="9.03" shape="820.35,804.98 820.11,802.52 819.14,800.72 817.44,799.60 815.00,799.15"/>
    </edge>
    <edge id=":1382074438_7" function="internal">
        <lane id=":1382074438_7_0" index="0" disallow="tram rail_urban rail rail_electric rail_fast ship" speed="22.22" length="11.22" shape="820.35,804.98 820.80,793.77"/>
    </edge>
    <edge id=":1382074438_8" function="internal">
        <lane id=":1382074438_8_0" index="0" disallow="tram rail_urban rail rail_electric rail_fast ship" speed="3.65" length="1.44" shape="820.35,804.98 821.20,803.82"/>
    </edge>
    <edge id=":1382074438_11" function="internal">
        <lane id=":1382074438_11_0" index="0" disallow="tram rail_urban rail rail_electric rail_fast ship" speed="3.65" length="3.23" shape="821.20,803.82 822.02,803.46 822.80,803.90 823.54,805.13"/>
    </edge>
    <edge id=":1382074441_0" function="internal">
        <lane id=":1382074441_0_0" index="0" disallow="tram rail_urban rail rail_electric rail_fast ship" speed="6.47" length="9.03" shape="617.92,928.52 618.16,930.99 619.13,932.77 620.84,933.88 623.28,934.30"/>
    </edge>
    <edge id=":1382074441_1" function="internal">
        <lane id=":1382074441_1_0" index="0" disallow="tram rail_urban rail rail_electric rail_fast ship" speed="22.22" length="11.30" shape="617.92,928.52 617.38,939.80"/>
    </edge>
    <edge id=":1382074441_2" function="internal">
        <lane id=":1382074441_2_0" index="0" disallow="tram rail_urban rail rail_electric rail_fast ship" speed="3.65" length="1.44" shape="617.92,928.52 617.07,929.68"/>
    </edge>
    <edge id=":1382074441_9" function="internal">
        <lane id=":1382074441_9_0" index="0" disallow="tram rail_urban rail rail_electric rail_fast ship" speed="3.65" length="3.23" shape="617.07,929.68 616.25,930.04 615.47,929.60 614.72,928.37"/>
    </edge>
    <edge id=":1382074441_3" function="internal">
        <lane id=":1382074441_3_0" index="0" disallow="tram rail_urban rail rail_electric rail_fast ship" speed="6.55" length="9.12" shape="608.85,933.81 611.32,933.55 613.12,932.56 614.26,930.83 614.72,928.37"/>
    </edge>
    <edge id=":1382074441_4" function="internal">
        <lane id=":1382074441_4_0" index="0" disallow="tram rail_urban rail rail_electric rail_fast ship" speed="22.22" length="14.45" shape="608.85,933.81 623.28,934.30"/>
    </edge>
    <edge id=":1382074441_5" function="internal">
        <lane id=":1382074441_5_0" index="0" disallow="tram rail_urban rail rail_electric rail_fast ship" speed="7.30" length="11.75" shape="608.85,933.81 612.68,934.31 615.39,935.48 616.95,937.31 617.38,939.80"/>
    </edge>
    <edge id=":1382074441_6" function="internal">
        <lane id=":1382074441_6_0" index="0" disallow="tram rail_urban rail rail_electric rail_fast ship" speed="22.22" length="11.29" shape="614.18,939.64 614.72,928.37"/>
    </edge>
    <edge id=":1382074441_7" function="internal">
        <lane id=":1382074441_7_0" index="0" disallow="tram rail_urban rail rail_electric rail_fast ship" speed="7.41" length="2.52" shape="614.18,939.64 614.85,937.21"/>
    </edge>
    <edge id=":1382074441_8" function="internal">
        <lane id=":1382074441_8_0" index="0" disallow="tram rail_urban rail rail_electric rail_fast ship" speed="3.65" length="1.44" shape="614.18,939.64 615.04,938.48"/>
    </edge>
    <edge id=":1382074441_10" function="internal">
        <lane id=":1382074441_10_0" index="0" disallow="tram rail_urban rail rail_electric rail_fast ship" speed="7.41" length="9.29" shape="614.85,937.21 616.60,935.51 619.41,934.54 623.28,934.30"/>
    </edge>
    <edge id=":1382074441_11" function="internal">
        <lane id=":1382074441_11_0" index="0" disallow="tram rail_urban rail rail_electric rail_fast ship" speed="3.65" length="3.23" shape="615.04,938.48 615.86,938.12 616.64,938.56 617.38,939.80"/>
    </edge>
    <edge id=":1382074442_0" function="internal">
        <lane id=":1382074442_0_0" index="0" disallow="tram rail_urban rail rail_electric rail_fast ship" speed="6.52" length="9.05" shape="817.91,936.02 818.16,938.48 819.14,940.28 820.85,941.40 823.29,941.86"/>
    </edge>
    <edge id=":1382074442_1" function="internal">
        <lane id=":1382074442_1_0" index="0" disallow="tram rail_urban rail rail_electric rail_fast ship" speed="22.22" length="11.21" shape="817.91,936.02 817.47,947.22"/>
    </edge>
    <edge id=":1382074442_2" function="internal">
        <lane id=":1382074442_2_0" index="0" disallow="tram rail_urban rail rail_electric rail_fast ship" speed="3.65" length="1.44" shape="817.91,936.02 817.06,937.18"/>
    </edge>
    <edge id=":1382074442_9" function="internal">
        <lane id=":1382074442_9_0" index="0" disallow="tram rail_urban rail rail_electric rail_fast ship" speed="3.65" length="3.23" shape="817.06,937.18 816.25,937.55 815.46,937.12 814.71,935.89"/>
    </edge>
    <edge id=":1382074442_3" function="internal">
        <lane id=":1382074442_3_0" index="0" disallow="tram rail_urban rail rail_electric rail_fast ship" speed="6.51" length="9.03" shape="808.90,941.27 811.36,941.01 813.15,940.03 814.26,938.33 814.71,935.89"/>
    </edge>
    <edge id=":1382074442_4" function="internal">
        <lane id=":1382074442_4_0" index="0" disallow="tram rail_urban rail rail_electric rail_fast ship" speed="22.22" length="14.41" shape="808.90,941.27 823.29,941.86"/>
    </edge>
    <edge id=":1382074442_5" function="internal">
        <lane id=":1382074442_5_0" index="0" disallow="tram rail_urban rail rail_electric rail_fast ship" speed="7.33" length="11.73" shape="808.90,941.27 812.73,941.77 815.44,942.93 817.01,944.74 817.47,947.22"/>
    </edge>
    <edge id=":1382074442_6" function="internal">
        <lane id=":1382074442_6_0" index="0" disallow="tram rail_urban rail rail_electric rail_fast ship" speed="22.22" length="11.21" shape="814.27,947.09 814.71,935.89"/>
    </edge>
    <edge id=":1382074442_7" function="internal">
        <lane id=":1382074442_7_0" index="0" disallow="tram rail_urban rail rail_electric rail_fast ship" speed="7.32" length="2.52" shape="814.27,947.09 814.92,944.66"/>
    </edge>
    <edge id=":1382074442_8" function="internal">
        <lane id=":1382074442_8_0" index="0" disallow="tram rail_urban rail rail_electric rail_fast ship" speed="3.65" length="1.44" shape="814.27,947.09 815.12,945.93"/>
    </edge>
    <edge id=":1382074442_10" function="internal">
        <lane id=":1382074442_10_0" index="0" disallow="tram rail_urban rail rail_electric rail_fast ship" speed="7.32" length="9.22" shape="814.92,944.66 816.64,942.98 819.43,942.04 823.29,941.86"/>
    </edge>
    <edge id=":1382074442_11" function="internal">
        <lane id=":1382074442_11_0" index="0" disallow="tram rail_urban rail rail_electric rail_fast ship" speed="3.65" length="3.23" shape="815.12,945.93 815.93,945.56 816.72,945.99 817.47,947.22"/>
    </edge>
    <edge id=":1382074455_0" function="internal">
        <lane id=":1382074455_0_0" index="0" disallow="tram rail_urban rail rail_electric rail_fast ship" speed="3.65" length="4.67" shape="803.16,1289.24 802.31,1290.40 801.49,1290.77 800.71,1290.33 799.96,1289.10"/>
    </edge>
    <edge id=":1382649921_0" function="internal">
        <lane id=":1382649921_0_0" index="0" disallow="tram rail_urban rail rail_electric rail_fast ship" speed="3.65" length="4.67" shape="696.05,1.11 695.79,-0.31 696.09,-1.15 696.94,-1.42 698.35,-1.11"/>
    </edge>
    <edge id=":1382649960_0" function="internal">
        <lane id=":1382649960_0_0" index="0" disallow="tram rail_urban rail rail_electric rail_fast ship" speed="3.65" length="4.67" shape="537.46,153.24 537.16,151.83 537.44,150.98 538.28,150.69 539.70,150.96"/>
    </edge>
    <edge id=":735026168_0" function="internal">
        <lane id=":735026168_0_0" index="0" disallow="tram rail_urban rail rail_electric rail_fast ship" speed="6.49" length="9.03" shape="455.19,782.53 452.72,782.75 450.92,783.71 449.79,785.40 449.33,787.84"/>
    </edge>
    <edge id=":735026168_1" function="internal">
        <lane id=":735026168_1_0" index="0" disallow="tram rail_urban rail rail_electric rail_fast ship" speed="22.22" length="11.22" shape="455.19,782.53 443.98,781.99"/>
    </edge>
    <edge id=":735026168_2" function="internal">
        <lane id=":735026168_2_0" index="0" disallow="tram rail_urban rail rail_electric rail_fast ship" speed="22.22" length="11.22" shape="449.81,776.63 449.33,787.84"/>
    </edge>
    <edge id=":735026168_3" function="internal">
        <lane id=":735026168_3_0" index="0" disallow="tram rail_urban rail rail_electric rail_fast ship" speed="6.50" length="9.03" shape="449.81,776.63 449.36,779.07 448.24,780.77 446.45,781.74 443.98,781.99"/>
    </edge>

    <edge id="-123700467#0" from="1382074441" to="1378587312" name="牡丹街" priority="10" type="highway.tertiary" shape="616.06,934.09 607.52,1104.80 600.76,1280.26 595.45,1395.01 594.70,1411.24 590.95,1492.04 584.94,1588.33 581.64,1673.98 578.34,1759.32 574.63,1835.03 571.29,1903.29 567.48,2016.07 567.29,2021.57 567.11,2030.58">
        <lane id="-123700467#0_0" index="0" disallow="tram rail_urban rail rail_electric rail_fast ship" speed="22.22" length="1091.93" shape="617.38,939.80 609.12,1104.87 602.36,1280.33 597.05,1395.08 596.30,1411.31 592.55,1492.13 586.54,1588.41 583.24,1674.04 579.94,1759.39 576.23,1835.11 572.89,1903.36 569.08,2016.12 568.89,2021.61 568.71,2030.61">
            <param key="origId" value="123700467"/>
        </lane>
    </edge>
    <edge id="-123700467#1" from="1382074437" to="1382074441" name="牡丹街" priority="10" type="highway.tertiary">
        <lane id="-123700467#1_0" index="0" disallow="tram rail_urban rail rail_electric rail_fast ship" speed="22.22" length="131.53" shape="624.01,797.12 617.92,928.52">
            <param key="origId" value="123700467"/>
        </lane>
    </edge>
    <edge id="-123700467#2" from="1382074423" to="1382074437" name="牡丹街" priority="10" type="highway.tertiary" shape="628.41,646.69 625.68,715.69 622.67,791.50">
        <lane id="-123700467#2_0" index="0" disallow="tram rail_urban rail rail_electric rail_fast ship" speed="22.22" length="133.66" shape="629.79,652.39 627.28,715.75 624.49,785.95">
            <param key="origId" value="123700467"/>
        </lane>
    </edge>
    <edge id="-123700467#3" from="1382649960" to="1382074423" name="牡丹街" priority="10" type="highway.tertiary" shape="538.58,152.10 643.63,255.14 635.79,463.29 635.18,476.50 631.57,567.19 628.41,646.69">
        <lane id="-123700467#3_0" index="0" disallow="tram rail_urban rail rail_electric rail_fast ship" speed="22.22" length="534.76" shape="539.70,150.96 645.26,254.49 637.39,463.36 636.78,476.57 633.17,567.25 630.23,641.11">
            <param key="origId" value="123700467"/>
        </lane>
    </edge>